
---------- Begin Simulation Statistics ----------
simSeconds                                   0.008372                       # Number of seconds simulated (Second)
simTicks                                   8372113000                       # Number of ticks simulated (Tick)
finalTick                                  8372113000                       # Number of ticks from beginning of simulation (restored from checkpoints and never reset) (Tick)
simFreq                                  1000000000000                       # The number of ticks per simulated second ((Tick/Second))
hostSeconds                                     64.81                       # Real time elapsed on the host (Second)
hostTickRate                                129175060                       # The number of ticks simulated per host second (ticks/s) ((Tick/Second))
hostMemory                                     727620                       # Number of bytes of host memory used (Byte)
simInsts                                     22040682                       # Number of instructions simulated (Count)
simOps                                       29257416                       # Number of ops (including micro ops) simulated (Count)
hostInstRate                                   340018                       # Simulator instruction rate (inst/s) ((Count/Second))
hostOpRate                                     451344                       # Simulator op (including micro ops) rate (op/s) ((Count/Second))
system.clk_domain.clock                          1000                       # Clock period in ticks (Tick)
system.clk_domain.voltage_domain.voltage            1                       # Voltage in Volts (Volt)
system.cpu.numCycles                          8372114                       # Number of cpu cycles simulated (Cycle)
system.cpu.cpi                               0.379848                       # CPI: cycles per instruction (core level) ((Cycle/Count))
system.cpu.ipc                               2.632630                       # IPC: instructions per cycle (core level) ((Count/Cycle))
system.cpu.numWorkItemsStarted                      0                       # Number of work items this cpu started (Count)
system.cpu.numWorkItemsCompleted                    0                       # Number of work items this cpu completed (Count)
system.cpu.instsAdded                        40167947                       # Number of instructions added to the IQ (excludes non-spec) (Count)
system.cpu.nonSpecInstsAdded                      144                       # Number of non-speculative instructions added to the IQ (Count)
system.cpu.instsIssued                       36093193                       # Number of instructions issued (Count)
system.cpu.squashedInstsIssued                 633068                       # Number of squashed instructions issued (Count)
system.cpu.squashedInstsExamined             10910669                       # Number of squashed instructions iterated over during squash; mainly for profiling (Count)
system.cpu.squashedOperandsExamined          23066160                       # Number of squashed operands that are examined and possibly removed from graph (Count)
system.cpu.squashedNonSpecRemoved                  72                       # Number of squashed non-spec instructions that were removed (Count)
system.cpu.numIssuedDist::samples             8355132                       # Number of insts issued each cycle (Count)
system.cpu.numIssuedDist::mean               4.319883                       # Number of insts issued each cycle (Count)
system.cpu.numIssuedDist::stdev              2.254973                       # Number of insts issued each cycle (Count)
system.cpu.numIssuedDist::underflows                0      0.00%      0.00% # Number of insts issued each cycle (Count)
system.cpu.numIssuedDist::0                    480044      5.75%      5.75% # Number of insts issued each cycle (Count)
system.cpu.numIssuedDist::1                    532806      6.38%     12.12% # Number of insts issued each cycle (Count)
system.cpu.numIssuedDist::2                   1007665     12.06%     24.18% # Number of insts issued each cycle (Count)
system.cpu.numIssuedDist::3                   1123359     13.45%     37.63% # Number of insts issued each cycle (Count)
system.cpu.numIssuedDist::4                   1069953     12.81%     50.43% # Number of insts issued each cycle (Count)
system.cpu.numIssuedDist::5                   1251862     14.98%     65.42% # Number of insts issued each cycle (Count)
system.cpu.numIssuedDist::6                   1292424     15.47%     80.89% # Number of insts issued each cycle (Count)
system.cpu.numIssuedDist::7                    894838     10.71%     91.60% # Number of insts issued each cycle (Count)
system.cpu.numIssuedDist::8                    702181      8.40%    100.00% # Number of insts issued each cycle (Count)
system.cpu.numIssuedDist::overflows                 0      0.00%    100.00% # Number of insts issued each cycle (Count)
system.cpu.numIssuedDist::min_value                 0                       # Number of insts issued each cycle (Count)
system.cpu.numIssuedDist::max_value                 8                       # Number of insts issued each cycle (Count)
system.cpu.numIssuedDist::total               8355132                       # Number of insts issued each cycle (Count)
system.cpu.statFuBusy::No_OpClass                   0      0.00%      0.00% # attempts to use FU when none available (Count)
system.cpu.statFuBusy::IntAlu                  649234     89.69%     89.69% # attempts to use FU when none available (Count)
system.cpu.statFuBusy::IntMult                      0      0.00%     89.69% # attempts to use FU when none available (Count)
system.cpu.statFuBusy::IntDiv                       0      0.00%     89.69% # attempts to use FU when none available (Count)
system.cpu.statFuBusy::FloatAdd                     0      0.00%     89.69% # attempts to use FU when none available (Count)
system.cpu.statFuBusy::FloatCmp                     0      0.00%     89.69% # attempts to use FU when none available (Count)
system.cpu.statFuBusy::FloatCvt                     0      0.00%     89.69% # attempts to use FU when none available (Count)
system.cpu.statFuBusy::FloatMult                    0      0.00%     89.69% # attempts to use FU when none available (Count)
system.cpu.statFuBusy::FloatMultAcc                 0      0.00%     89.69% # attempts to use FU when none available (Count)
system.cpu.statFuBusy::FloatDiv                     0      0.00%     89.69% # attempts to use FU when none available (Count)
system.cpu.statFuBusy::FloatMisc                    0      0.00%     89.69% # attempts to use FU when none available (Count)
system.cpu.statFuBusy::FloatSqrt                    0      0.00%     89.69% # attempts to use FU when none available (Count)
system.cpu.statFuBusy::SimdAdd                      3      0.00%     89.69% # attempts to use FU when none available (Count)
system.cpu.statFuBusy::SimdAddAcc                   0      0.00%     89.69% # attempts to use FU when none available (Count)
system.cpu.statFuBusy::SimdAlu                     28      0.00%     89.69% # attempts to use FU when none available (Count)
system.cpu.statFuBusy::SimdCmp                      0      0.00%     89.69% # attempts to use FU when none available (Count)
system.cpu.statFuBusy::SimdCvt                     20      0.00%     89.69% # attempts to use FU when none available (Count)
system.cpu.statFuBusy::SimdMisc                     6      0.00%     89.69% # attempts to use FU when none available (Count)
system.cpu.statFuBusy::SimdMult                     0      0.00%     89.69% # attempts to use FU when none available (Count)
system.cpu.statFuBusy::SimdMultAcc                  0      0.00%     89.69% # attempts to use FU when none available (Count)
system.cpu.statFuBusy::SimdMatMultAcc               0      0.00%     89.69% # attempts to use FU when none available (Count)
system.cpu.statFuBusy::SimdShift                   24      0.00%     89.70% # attempts to use FU when none available (Count)
system.cpu.statFuBusy::SimdShiftAcc                 0      0.00%     89.70% # attempts to use FU when none available (Count)
system.cpu.statFuBusy::SimdDiv                      0      0.00%     89.70% # attempts to use FU when none available (Count)
system.cpu.statFuBusy::SimdSqrt                     0      0.00%     89.70% # attempts to use FU when none available (Count)
system.cpu.statFuBusy::SimdFloatAdd                 0      0.00%     89.70% # attempts to use FU when none available (Count)
system.cpu.statFuBusy::SimdFloatAlu                 0      0.00%     89.70% # attempts to use FU when none available (Count)
system.cpu.statFuBusy::SimdFloatCmp                 0      0.00%     89.70% # attempts to use FU when none available (Count)
system.cpu.statFuBusy::SimdFloatCvt                 0      0.00%     89.70% # attempts to use FU when none available (Count)
system.cpu.statFuBusy::SimdFloatDiv                 0      0.00%     89.70% # attempts to use FU when none available (Count)
system.cpu.statFuBusy::SimdFloatMisc                0      0.00%     89.70% # attempts to use FU when none available (Count)
system.cpu.statFuBusy::SimdFloatMult                0      0.00%     89.70% # attempts to use FU when none available (Count)
system.cpu.statFuBusy::SimdFloatMultAcc             0      0.00%     89.70% # attempts to use FU when none available (Count)
system.cpu.statFuBusy::SimdFloatMatMultAcc            0      0.00%     89.70% # attempts to use FU when none available (Count)
system.cpu.statFuBusy::SimdFloatSqrt                0      0.00%     89.70% # attempts to use FU when none available (Count)
system.cpu.statFuBusy::SimdReduceAdd                0      0.00%     89.70% # attempts to use FU when none available (Count)
system.cpu.statFuBusy::SimdReduceAlu                0      0.00%     89.70% # attempts to use FU when none available (Count)
system.cpu.statFuBusy::SimdReduceCmp                0      0.00%     89.70% # attempts to use FU when none available (Count)
system.cpu.statFuBusy::SimdFloatReduceAdd            0      0.00%     89.70% # attempts to use FU when none available (Count)
system.cpu.statFuBusy::SimdFloatReduceCmp            0      0.00%     89.70% # attempts to use FU when none available (Count)
system.cpu.statFuBusy::SimdAes                      0      0.00%     89.70% # attempts to use FU when none available (Count)
system.cpu.statFuBusy::SimdAesMix                   0      0.00%     89.70% # attempts to use FU when none available (Count)
system.cpu.statFuBusy::SimdSha1Hash                 0      0.00%     89.70% # attempts to use FU when none available (Count)
system.cpu.statFuBusy::SimdSha1Hash2                0      0.00%     89.70% # attempts to use FU when none available (Count)
system.cpu.statFuBusy::SimdSha256Hash               0      0.00%     89.70% # attempts to use FU when none available (Count)
system.cpu.statFuBusy::SimdSha256Hash2              0      0.00%     89.70% # attempts to use FU when none available (Count)
system.cpu.statFuBusy::SimdShaSigma2                0      0.00%     89.70% # attempts to use FU when none available (Count)
system.cpu.statFuBusy::SimdShaSigma3                0      0.00%     89.70% # attempts to use FU when none available (Count)
system.cpu.statFuBusy::SimdSha3                     0      0.00%     89.70% # attempts to use FU when none available (Count)
system.cpu.statFuBusy::SimdSm4e                     0      0.00%     89.70% # attempts to use FU when none available (Count)
system.cpu.statFuBusy::SimdCrc                      0      0.00%     89.70% # attempts to use FU when none available (Count)
system.cpu.statFuBusy::SimdPredAlu                  0      0.00%     89.70% # attempts to use FU when none available (Count)
system.cpu.statFuBusy::SimdDotProd                  0      0.00%     89.70% # attempts to use FU when none available (Count)
system.cpu.statFuBusy::Matrix                       0      0.00%     89.70% # attempts to use FU when none available (Count)
system.cpu.statFuBusy::MatrixMov                    0      0.00%     89.70% # attempts to use FU when none available (Count)
system.cpu.statFuBusy::MatrixOP                     0      0.00%     89.70% # attempts to use FU when none available (Count)
system.cpu.statFuBusy::MemRead                  73198     10.11%     99.81% # attempts to use FU when none available (Count)
system.cpu.statFuBusy::MemWrite                  1224      0.17%     99.98% # attempts to use FU when none available (Count)
system.cpu.statFuBusy::FloatMemRead                72      0.01%     99.99% # attempts to use FU when none available (Count)
system.cpu.statFuBusy::FloatMemWrite               81      0.01%    100.00% # attempts to use FU when none available (Count)
system.cpu.statFuBusy::InstPrefetch                 0      0.00%    100.00% # attempts to use FU when none available (Count)
system.cpu.statFuBusy::SimdUnitStrideLoad            0      0.00%    100.00% # attempts to use FU when none available (Count)
system.cpu.statFuBusy::SimdUnitStrideStore            0      0.00%    100.00% # attempts to use FU when none available (Count)
system.cpu.statFuBusy::SimdUnitStrideMaskLoad            0      0.00%    100.00% # attempts to use FU when none available (Count)
system.cpu.statFuBusy::SimdUnitStrideMaskStore            0      0.00%    100.00% # attempts to use FU when none available (Count)
system.cpu.statFuBusy::SimdStridedLoad              0      0.00%    100.00% # attempts to use FU when none available (Count)
system.cpu.statFuBusy::SimdStridedStore             0      0.00%    100.00% # attempts to use FU when none available (Count)
system.cpu.statFuBusy::SimdIndexedLoad              0      0.00%    100.00% # attempts to use FU when none available (Count)
system.cpu.statFuBusy::SimdIndexedStore             0      0.00%    100.00% # attempts to use FU when none available (Count)
system.cpu.statFuBusy::SimdWholeRegisterLoad            0      0.00%    100.00% # attempts to use FU when none available (Count)
system.cpu.statFuBusy::SimdWholeRegisterStore            0      0.00%    100.00% # attempts to use FU when none available (Count)
system.cpu.statFuBusy::SimdUnitStrideFaultOnlyFirstLoad            0      0.00%    100.00% # attempts to use FU when none available (Count)
system.cpu.statFuBusy::SimdUnitStrideSegmentedLoad            0      0.00%    100.00% # attempts to use FU when none available (Count)
system.cpu.statFuBusy::SimdUnitStrideSegmentedStore            0      0.00%    100.00% # attempts to use FU when none available (Count)
system.cpu.statFuBusy::SimdUnitStrideSegmentedFaultOnlyFirstLoad            0      0.00%    100.00% # attempts to use FU when none available (Count)
system.cpu.statFuBusy::SimdStrideSegmentedLoad            0      0.00%    100.00% # attempts to use FU when none available (Count)
system.cpu.statFuBusy::SimdStrideSegmentedStore            0      0.00%    100.00% # attempts to use FU when none available (Count)
system.cpu.statFuBusy::SimdExt                      0      0.00%    100.00% # attempts to use FU when none available (Count)
system.cpu.statFuBusy::SimdFloatExt                 0      0.00%    100.00% # attempts to use FU when none available (Count)
system.cpu.statFuBusy::SimdConfig                   0      0.00%    100.00% # attempts to use FU when none available (Count)
system.cpu.statFuBusy::SimdBf16Add                  0      0.00%    100.00% # attempts to use FU when none available (Count)
system.cpu.statFuBusy::SimdBf16Cmp                  0      0.00%    100.00% # attempts to use FU when none available (Count)
system.cpu.statFuBusy::SimdBf16Cvt                  0      0.00%    100.00% # attempts to use FU when none available (Count)
system.cpu.statFuBusy::SimdBf16DotProd              0      0.00%    100.00% # attempts to use FU when none available (Count)
system.cpu.statFuBusy::SimdBf16MatMultAcc            0      0.00%    100.00% # attempts to use FU when none available (Count)
system.cpu.statFuBusy::SimdBf16Mult                 0      0.00%    100.00% # attempts to use FU when none available (Count)
system.cpu.statFuBusy::SimdBf16MultAcc              0      0.00%    100.00% # attempts to use FU when none available (Count)
system.cpu.statFuBusy::Bf16Cvt                      0      0.00%    100.00% # attempts to use FU when none available (Count)
system.cpu.statFuBusy::System                       0      0.00%    100.00% # attempts to use FU when none available (Count)
system.cpu.issuedInstType_0::No_OpClass          9677      0.05%      0.05% # Number of instructions issued per FU type, per thread (Count)
system.cpu.issuedInstType_0::IntAlu          12827660     71.21%     71.26% # Number of instructions issued per FU type, per thread (Count)
system.cpu.issuedInstType_0::IntMult           262957      1.46%     72.72% # Number of instructions issued per FU type, per thread (Count)
system.cpu.issuedInstType_0::IntDiv              1507      0.01%     72.73% # Number of instructions issued per FU type, per thread (Count)
system.cpu.issuedInstType_0::FloatAdd             923      0.01%     72.73% # Number of instructions issued per FU type, per thread (Count)
system.cpu.issuedInstType_0::FloatCmp               0      0.00%     72.73% # Number of instructions issued per FU type, per thread (Count)
system.cpu.issuedInstType_0::FloatCvt               0      0.00%     72.73% # Number of instructions issued per FU type, per thread (Count)
system.cpu.issuedInstType_0::FloatMult              0      0.00%     72.73% # Number of instructions issued per FU type, per thread (Count)
system.cpu.issuedInstType_0::FloatMultAcc            0      0.00%     72.73% # Number of instructions issued per FU type, per thread (Count)
system.cpu.issuedInstType_0::FloatDiv               0      0.00%     72.73% # Number of instructions issued per FU type, per thread (Count)
system.cpu.issuedInstType_0::FloatMisc              0      0.00%     72.73% # Number of instructions issued per FU type, per thread (Count)
system.cpu.issuedInstType_0::FloatSqrt              0      0.00%     72.73% # Number of instructions issued per FU type, per thread (Count)
system.cpu.issuedInstType_0::SimdAdd              433      0.00%     72.74% # Number of instructions issued per FU type, per thread (Count)
system.cpu.issuedInstType_0::SimdAddAcc             0      0.00%     72.74% # Number of instructions issued per FU type, per thread (Count)
system.cpu.issuedInstType_0::SimdAlu             1547      0.01%     72.75% # Number of instructions issued per FU type, per thread (Count)
system.cpu.issuedInstType_0::SimdCmp                0      0.00%     72.75% # Number of instructions issued per FU type, per thread (Count)
system.cpu.issuedInstType_0::SimdCvt             1051      0.01%     72.75% # Number of instructions issued per FU type, per thread (Count)
system.cpu.issuedInstType_0::SimdMisc            1028      0.01%     72.76% # Number of instructions issued per FU type, per thread (Count)
system.cpu.issuedInstType_0::SimdMult               0      0.00%     72.76% # Number of instructions issued per FU type, per thread (Count)
system.cpu.issuedInstType_0::SimdMultAcc            0      0.00%     72.76% # Number of instructions issued per FU type, per thread (Count)
system.cpu.issuedInstType_0::SimdMatMultAcc            0      0.00%     72.76% # Number of instructions issued per FU type, per thread (Count)
system.cpu.issuedInstType_0::SimdShift            548      0.00%     72.76% # Number of instructions issued per FU type, per thread (Count)
system.cpu.issuedInstType_0::SimdShiftAcc            0      0.00%     72.76% # Number of instructions issued per FU type, per thread (Count)
system.cpu.issuedInstType_0::SimdDiv                0      0.00%     72.76% # Number of instructions issued per FU type, per thread (Count)
system.cpu.issuedInstType_0::SimdSqrt               0      0.00%     72.76% # Number of instructions issued per FU type, per thread (Count)
system.cpu.issuedInstType_0::SimdFloatAdd            0      0.00%     72.76% # Number of instructions issued per FU type, per thread (Count)
system.cpu.issuedInstType_0::SimdFloatAlu            0      0.00%     72.76% # Number of instructions issued per FU type, per thread (Count)
system.cpu.issuedInstType_0::SimdFloatCmp            0      0.00%     72.76% # Number of instructions issued per FU type, per thread (Count)
system.cpu.issuedInstType_0::SimdFloatCvt            0      0.00%     72.76% # Number of instructions issued per FU type, per thread (Count)
system.cpu.issuedInstType_0::SimdFloatDiv            0      0.00%     72.76% # Number of instructions issued per FU type, per thread (Count)
system.cpu.issuedInstType_0::SimdFloatMisc            0      0.00%     72.76% # Number of instructions issued per FU type, per thread (Count)
system.cpu.issuedInstType_0::SimdFloatMult            0      0.00%     72.76% # Number of instructions issued per FU type, per thread (Count)
system.cpu.issuedInstType_0::SimdFloatMultAcc            0      0.00%     72.76% # Number of instructions issued per FU type, per thread (Count)
system.cpu.issuedInstType_0::SimdFloatMatMultAcc            0      0.00%     72.76% # Number of instructions issued per FU type, per thread (Count)
system.cpu.issuedInstType_0::SimdFloatSqrt            0      0.00%     72.76% # Number of instructions issued per FU type, per thread (Count)
system.cpu.issuedInstType_0::SimdReduceAdd            0      0.00%     72.76% # Number of instructions issued per FU type, per thread (Count)
system.cpu.issuedInstType_0::SimdReduceAlu            0      0.00%     72.76% # Number of instructions issued per FU type, per thread (Count)
system.cpu.issuedInstType_0::SimdReduceCmp            0      0.00%     72.76% # Number of instructions issued per FU type, per thread (Count)
system.cpu.issuedInstType_0::SimdFloatReduceAdd            0      0.00%     72.76% # Number of instructions issued per FU type, per thread (Count)
system.cpu.issuedInstType_0::SimdFloatReduceCmp            0      0.00%     72.76% # Number of instructions issued per FU type, per thread (Count)
system.cpu.issuedInstType_0::SimdAes                0      0.00%     72.76% # Number of instructions issued per FU type, per thread (Count)
system.cpu.issuedInstType_0::SimdAesMix             0      0.00%     72.76% # Number of instructions issued per FU type, per thread (Count)
system.cpu.issuedInstType_0::SimdSha1Hash            0      0.00%     72.76% # Number of instructions issued per FU type, per thread (Count)
system.cpu.issuedInstType_0::SimdSha1Hash2            0      0.00%     72.76% # Number of instructions issued per FU type, per thread (Count)
system.cpu.issuedInstType_0::SimdSha256Hash            0      0.00%     72.76% # Number of instructions issued per FU type, per thread (Count)
system.cpu.issuedInstType_0::SimdSha256Hash2            0      0.00%     72.76% # Number of instructions issued per FU type, per thread (Count)
system.cpu.issuedInstType_0::SimdShaSigma2            0      0.00%     72.76% # Number of instructions issued per FU type, per thread (Count)
system.cpu.issuedInstType_0::SimdShaSigma3            0      0.00%     72.76% # Number of instructions issued per FU type, per thread (Count)
system.cpu.issuedInstType_0::SimdSha3               0      0.00%     72.76% # Number of instructions issued per FU type, per thread (Count)
system.cpu.issuedInstType_0::SimdSm4e               0      0.00%     72.76% # Number of instructions issued per FU type, per thread (Count)
system.cpu.issuedInstType_0::SimdCrc                0      0.00%     72.76% # Number of instructions issued per FU type, per thread (Count)
system.cpu.issuedInstType_0::SimdPredAlu            0      0.00%     72.76% # Number of instructions issued per FU type, per thread (Count)
system.cpu.issuedInstType_0::SimdDotProd            0      0.00%     72.76% # Number of instructions issued per FU type, per thread (Count)
system.cpu.issuedInstType_0::Matrix                 0      0.00%     72.76% # Number of instructions issued per FU type, per thread (Count)
system.cpu.issuedInstType_0::MatrixMov              0      0.00%     72.76% # Number of instructions issued per FU type, per thread (Count)
system.cpu.issuedInstType_0::MatrixOP               0      0.00%     72.76% # Number of instructions issued per FU type, per thread (Count)
system.cpu.issuedInstType_0::MemRead          4052331     22.49%     95.25% # Number of instructions issued per FU type, per thread (Count)
system.cpu.issuedInstType_0::MemWrite          851583      4.73%     99.98% # Number of instructions issued per FU type, per thread (Count)
system.cpu.issuedInstType_0::FloatMemRead         1632      0.01%     99.99% # Number of instructions issued per FU type, per thread (Count)
system.cpu.issuedInstType_0::FloatMemWrite         1584      0.01%    100.00% # Number of instructions issued per FU type, per thread (Count)
system.cpu.issuedInstType_0::InstPrefetch            0      0.00%    100.00% # Number of instructions issued per FU type, per thread (Count)
system.cpu.issuedInstType_0::SimdUnitStrideLoad            0      0.00%    100.00% # Number of instructions issued per FU type, per thread (Count)
system.cpu.issuedInstType_0::SimdUnitStrideStore            0      0.00%    100.00% # Number of instructions issued per FU type, per thread (Count)
system.cpu.issuedInstType_0::SimdUnitStrideMaskLoad            0      0.00%    100.00% # Number of instructions issued per FU type, per thread (Count)
system.cpu.issuedInstType_0::SimdUnitStrideMaskStore            0      0.00%    100.00% # Number of instructions issued per FU type, per thread (Count)
system.cpu.issuedInstType_0::SimdStridedLoad            0      0.00%    100.00% # Number of instructions issued per FU type, per thread (Count)
system.cpu.issuedInstType_0::SimdStridedStore            0      0.00%    100.00% # Number of instructions issued per FU type, per thread (Count)
system.cpu.issuedInstType_0::SimdIndexedLoad            0      0.00%    100.00% # Number of instructions issued per FU type, per thread (Count)
system.cpu.issuedInstType_0::SimdIndexedStore            0      0.00%    100.00% # Number of instructions issued per FU type, per thread (Count)
system.cpu.issuedInstType_0::SimdWholeRegisterLoad            0      0.00%    100.00% # Number of instructions issued per FU type, per thread (Count)
system.cpu.issuedInstType_0::SimdWholeRegisterStore            0      0.00%    100.00% # Number of instructions issued per FU type, per thread (Count)
system.cpu.issuedInstType_0::SimdUnitStrideFaultOnlyFirstLoad            0      0.00%    100.00% # Number of instructions issued per FU type, per thread (Count)
system.cpu.issuedInstType_0::SimdUnitStrideSegmentedLoad            0      0.00%    100.00% # Number of instructions issued per FU type, per thread (Count)
system.cpu.issuedInstType_0::SimdUnitStrideSegmentedStore            0      0.00%    100.00% # Number of instructions issued per FU type, per thread (Count)
system.cpu.issuedInstType_0::SimdUnitStrideSegmentedFaultOnlyFirstLoad            0      0.00%    100.00% # Number of instructions issued per FU type, per thread (Count)
system.cpu.issuedInstType_0::SimdStrideSegmentedLoad            0      0.00%    100.00% # Number of instructions issued per FU type, per thread (Count)
system.cpu.issuedInstType_0::SimdStrideSegmentedStore            0      0.00%    100.00% # Number of instructions issued per FU type, per thread (Count)
system.cpu.issuedInstType_0::SimdExt                0      0.00%    100.00% # Number of instructions issued per FU type, per thread (Count)
system.cpu.issuedInstType_0::SimdFloatExt            0      0.00%    100.00% # Number of instructions issued per FU type, per thread (Count)
system.cpu.issuedInstType_0::SimdConfig             0      0.00%    100.00% # Number of instructions issued per FU type, per thread (Count)
system.cpu.issuedInstType_0::SimdBf16Add            0      0.00%    100.00% # Number of instructions issued per FU type, per thread (Count)
system.cpu.issuedInstType_0::SimdBf16Cmp            0      0.00%    100.00% # Number of instructions issued per FU type, per thread (Count)
system.cpu.issuedInstType_0::SimdBf16Cvt            0      0.00%    100.00% # Number of instructions issued per FU type, per thread (Count)
system.cpu.issuedInstType_0::SimdBf16DotProd            0      0.00%    100.00% # Number of instructions issued per FU type, per thread (Count)
system.cpu.issuedInstType_0::SimdBf16MatMultAcc            0      0.00%    100.00% # Number of instructions issued per FU type, per thread (Count)
system.cpu.issuedInstType_0::SimdBf16Mult            0      0.00%    100.00% # Number of instructions issued per FU type, per thread (Count)
system.cpu.issuedInstType_0::SimdBf16MultAcc            0      0.00%    100.00% # Number of instructions issued per FU type, per thread (Count)
system.cpu.issuedInstType_0::Bf16Cvt                0      0.00%    100.00% # Number of instructions issued per FU type, per thread (Count)
system.cpu.issuedInstType_0::System                 0      0.00%    100.00% # Number of instructions issued per FU type, per thread (Count)
system.cpu.issuedInstType_0::total           18014461                       # Number of instructions issued per FU type, per thread (Count)
system.cpu.issuedInstType_1::No_OpClass          4385      0.02%      0.02% # Number of instructions issued per FU type, per thread (Count)
system.cpu.issuedInstType_1::IntAlu          12835319     71.00%     71.02% # Number of instructions issued per FU type, per thread (Count)
system.cpu.issuedInstType_1::IntMult           262961      1.45%     72.48% # Number of instructions issued per FU type, per thread (Count)
system.cpu.issuedInstType_1::IntDiv              1494      0.01%     72.48% # Number of instructions issued per FU type, per thread (Count)
system.cpu.issuedInstType_1::FloatAdd             924      0.01%     72.49% # Number of instructions issued per FU type, per thread (Count)
system.cpu.issuedInstType_1::FloatCmp               0      0.00%     72.49% # Number of instructions issued per FU type, per thread (Count)
system.cpu.issuedInstType_1::FloatCvt               0      0.00%     72.49% # Number of instructions issued per FU type, per thread (Count)
system.cpu.issuedInstType_1::FloatMult              0      0.00%     72.49% # Number of instructions issued per FU type, per thread (Count)
system.cpu.issuedInstType_1::FloatMultAcc            0      0.00%     72.49% # Number of instructions issued per FU type, per thread (Count)
system.cpu.issuedInstType_1::FloatDiv               0      0.00%     72.49% # Number of instructions issued per FU type, per thread (Count)
system.cpu.issuedInstType_1::FloatMisc              0      0.00%     72.49% # Number of instructions issued per FU type, per thread (Count)
system.cpu.issuedInstType_1::FloatSqrt              0      0.00%     72.49% # Number of instructions issued per FU type, per thread (Count)
system.cpu.issuedInstType_1::SimdAdd              432      0.00%     72.49% # Number of instructions issued per FU type, per thread (Count)
system.cpu.issuedInstType_1::SimdAddAcc             0      0.00%     72.49% # Number of instructions issued per FU type, per thread (Count)
system.cpu.issuedInstType_1::SimdAlu             1609      0.01%     72.50% # Number of instructions issued per FU type, per thread (Count)
system.cpu.issuedInstType_1::SimdCmp                0      0.00%     72.50% # Number of instructions issued per FU type, per thread (Count)
system.cpu.issuedInstType_1::SimdCvt             1051      0.01%     72.51% # Number of instructions issued per FU type, per thread (Count)
system.cpu.issuedInstType_1::SimdMisc            1039      0.01%     72.51% # Number of instructions issued per FU type, per thread (Count)
system.cpu.issuedInstType_1::SimdMult               0      0.00%     72.51% # Number of instructions issued per FU type, per thread (Count)
system.cpu.issuedInstType_1::SimdMultAcc            0      0.00%     72.51% # Number of instructions issued per FU type, per thread (Count)
system.cpu.issuedInstType_1::SimdMatMultAcc            0      0.00%     72.51% # Number of instructions issued per FU type, per thread (Count)
system.cpu.issuedInstType_1::SimdShift            537      0.00%     72.51% # Number of instructions issued per FU type, per thread (Count)
system.cpu.issuedInstType_1::SimdShiftAcc            0      0.00%     72.51% # Number of instructions issued per FU type, per thread (Count)
system.cpu.issuedInstType_1::SimdDiv                0      0.00%     72.51% # Number of instructions issued per FU type, per thread (Count)
system.cpu.issuedInstType_1::SimdSqrt               0      0.00%     72.51% # Number of instructions issued per FU type, per thread (Count)
system.cpu.issuedInstType_1::SimdFloatAdd            0      0.00%     72.51% # Number of instructions issued per FU type, per thread (Count)
system.cpu.issuedInstType_1::SimdFloatAlu            0      0.00%     72.51% # Number of instructions issued per FU type, per thread (Count)
system.cpu.issuedInstType_1::SimdFloatCmp            0      0.00%     72.51% # Number of instructions issued per FU type, per thread (Count)
system.cpu.issuedInstType_1::SimdFloatCvt            0      0.00%     72.51% # Number of instructions issued per FU type, per thread (Count)
system.cpu.issuedInstType_1::SimdFloatDiv            0      0.00%     72.51% # Number of instructions issued per FU type, per thread (Count)
system.cpu.issuedInstType_1::SimdFloatMisc            0      0.00%     72.51% # Number of instructions issued per FU type, per thread (Count)
system.cpu.issuedInstType_1::SimdFloatMult            0      0.00%     72.51% # Number of instructions issued per FU type, per thread (Count)
system.cpu.issuedInstType_1::SimdFloatMultAcc            0      0.00%     72.51% # Number of instructions issued per FU type, per thread (Count)
system.cpu.issuedInstType_1::SimdFloatMatMultAcc            0      0.00%     72.51% # Number of instructions issued per FU type, per thread (Count)
system.cpu.issuedInstType_1::SimdFloatSqrt            0      0.00%     72.51% # Number of instructions issued per FU type, per thread (Count)
system.cpu.issuedInstType_1::SimdReduceAdd            0      0.00%     72.51% # Number of instructions issued per FU type, per thread (Count)
system.cpu.issuedInstType_1::SimdReduceAlu            0      0.00%     72.51% # Number of instructions issued per FU type, per thread (Count)
system.cpu.issuedInstType_1::SimdReduceCmp            0      0.00%     72.51% # Number of instructions issued per FU type, per thread (Count)
system.cpu.issuedInstType_1::SimdFloatReduceAdd            0      0.00%     72.51% # Number of instructions issued per FU type, per thread (Count)
system.cpu.issuedInstType_1::SimdFloatReduceCmp            0      0.00%     72.51% # Number of instructions issued per FU type, per thread (Count)
system.cpu.issuedInstType_1::SimdAes                0      0.00%     72.51% # Number of instructions issued per FU type, per thread (Count)
system.cpu.issuedInstType_1::SimdAesMix             0      0.00%     72.51% # Number of instructions issued per FU type, per thread (Count)
system.cpu.issuedInstType_1::SimdSha1Hash            0      0.00%     72.51% # Number of instructions issued per FU type, per thread (Count)
system.cpu.issuedInstType_1::SimdSha1Hash2            0      0.00%     72.51% # Number of instructions issued per FU type, per thread (Count)
system.cpu.issuedInstType_1::SimdSha256Hash            0      0.00%     72.51% # Number of instructions issued per FU type, per thread (Count)
system.cpu.issuedInstType_1::SimdSha256Hash2            0      0.00%     72.51% # Number of instructions issued per FU type, per thread (Count)
system.cpu.issuedInstType_1::SimdShaSigma2            0      0.00%     72.51% # Number of instructions issued per FU type, per thread (Count)
system.cpu.issuedInstType_1::SimdShaSigma3            0      0.00%     72.51% # Number of instructions issued per FU type, per thread (Count)
system.cpu.issuedInstType_1::SimdSha3               0      0.00%     72.51% # Number of instructions issued per FU type, per thread (Count)
system.cpu.issuedInstType_1::SimdSm4e               0      0.00%     72.51% # Number of instructions issued per FU type, per thread (Count)
system.cpu.issuedInstType_1::SimdCrc                0      0.00%     72.51% # Number of instructions issued per FU type, per thread (Count)
system.cpu.issuedInstType_1::SimdPredAlu            0      0.00%     72.51% # Number of instructions issued per FU type, per thread (Count)
system.cpu.issuedInstType_1::SimdDotProd            0      0.00%     72.51% # Number of instructions issued per FU type, per thread (Count)
system.cpu.issuedInstType_1::Matrix                 0      0.00%     72.51% # Number of instructions issued per FU type, per thread (Count)
system.cpu.issuedInstType_1::MatrixMov              0      0.00%     72.51% # Number of instructions issued per FU type, per thread (Count)
system.cpu.issuedInstType_1::MatrixOP               0      0.00%     72.51% # Number of instructions issued per FU type, per thread (Count)
system.cpu.issuedInstType_1::MemRead          4069103     22.51%     95.02% # Number of instructions issued per FU type, per thread (Count)
system.cpu.issuedInstType_1::MemWrite          896597      4.96%     99.98% # Number of instructions issued per FU type, per thread (Count)
system.cpu.issuedInstType_1::FloatMemRead         1682      0.01%     99.99% # Number of instructions issued per FU type, per thread (Count)
system.cpu.issuedInstType_1::FloatMemWrite         1599      0.01%    100.00% # Number of instructions issued per FU type, per thread (Count)
system.cpu.issuedInstType_1::InstPrefetch            0      0.00%    100.00% # Number of instructions issued per FU type, per thread (Count)
system.cpu.issuedInstType_1::SimdUnitStrideLoad            0      0.00%    100.00% # Number of instructions issued per FU type, per thread (Count)
system.cpu.issuedInstType_1::SimdUnitStrideStore            0      0.00%    100.00% # Number of instructions issued per FU type, per thread (Count)
system.cpu.issuedInstType_1::SimdUnitStrideMaskLoad            0      0.00%    100.00% # Number of instructions issued per FU type, per thread (Count)
system.cpu.issuedInstType_1::SimdUnitStrideMaskStore            0      0.00%    100.00% # Number of instructions issued per FU type, per thread (Count)
system.cpu.issuedInstType_1::SimdStridedLoad            0      0.00%    100.00% # Number of instructions issued per FU type, per thread (Count)
system.cpu.issuedInstType_1::SimdStridedStore            0      0.00%    100.00% # Number of instructions issued per FU type, per thread (Count)
system.cpu.issuedInstType_1::SimdIndexedLoad            0      0.00%    100.00% # Number of instructions issued per FU type, per thread (Count)
system.cpu.issuedInstType_1::SimdIndexedStore            0      0.00%    100.00% # Number of instructions issued per FU type, per thread (Count)
system.cpu.issuedInstType_1::SimdWholeRegisterLoad            0      0.00%    100.00% # Number of instructions issued per FU type, per thread (Count)
system.cpu.issuedInstType_1::SimdWholeRegisterStore            0      0.00%    100.00% # Number of instructions issued per FU type, per thread (Count)
system.cpu.issuedInstType_1::SimdUnitStrideFaultOnlyFirstLoad            0      0.00%    100.00% # Number of instructions issued per FU type, per thread (Count)
system.cpu.issuedInstType_1::SimdUnitStrideSegmentedLoad            0      0.00%    100.00% # Number of instructions issued per FU type, per thread (Count)
system.cpu.issuedInstType_1::SimdUnitStrideSegmentedStore            0      0.00%    100.00% # Number of instructions issued per FU type, per thread (Count)
system.cpu.issuedInstType_1::SimdUnitStrideSegmentedFaultOnlyFirstLoad            0      0.00%    100.00% # Number of instructions issued per FU type, per thread (Count)
system.cpu.issuedInstType_1::SimdStrideSegmentedLoad            0      0.00%    100.00% # Number of instructions issued per FU type, per thread (Count)
system.cpu.issuedInstType_1::SimdStrideSegmentedStore            0      0.00%    100.00% # Number of instructions issued per FU type, per thread (Count)
system.cpu.issuedInstType_1::SimdExt                0      0.00%    100.00% # Number of instructions issued per FU type, per thread (Count)
system.cpu.issuedInstType_1::SimdFloatExt            0      0.00%    100.00% # Number of instructions issued per FU type, per thread (Count)
system.cpu.issuedInstType_1::SimdConfig             0      0.00%    100.00% # Number of instructions issued per FU type, per thread (Count)
system.cpu.issuedInstType_1::SimdBf16Add            0      0.00%    100.00% # Number of instructions issued per FU type, per thread (Count)
system.cpu.issuedInstType_1::SimdBf16Cmp            0      0.00%    100.00% # Number of instructions issued per FU type, per thread (Count)
system.cpu.issuedInstType_1::SimdBf16Cvt            0      0.00%    100.00% # Number of instructions issued per FU type, per thread (Count)
system.cpu.issuedInstType_1::SimdBf16DotProd            0      0.00%    100.00% # Number of instructions issued per FU type, per thread (Count)
system.cpu.issuedInstType_1::SimdBf16MatMultAcc            0      0.00%    100.00% # Number of instructions issued per FU type, per thread (Count)
system.cpu.issuedInstType_1::SimdBf16Mult            0      0.00%    100.00% # Number of instructions issued per FU type, per thread (Count)
system.cpu.issuedInstType_1::SimdBf16MultAcc            0      0.00%    100.00% # Number of instructions issued per FU type, per thread (Count)
system.cpu.issuedInstType_1::Bf16Cvt                0      0.00%    100.00% # Number of instructions issued per FU type, per thread (Count)
system.cpu.issuedInstType_1::System                 0      0.00%    100.00% # Number of instructions issued per FU type, per thread (Count)
system.cpu.issuedInstType_1::total           18078732                       # Number of instructions issued per FU type, per thread (Count)
system.cpu.issuedInstType::total             36093193      0.00%      0.00% # Number of instructions issued per FU type, per thread (Count)
system.cpu.issueRate                         4.311121                       # Inst issue rate ((Count/Cycle))
system.cpu.fuBusy::0                           357321                       # FU busy when requested (Count)
system.cpu.fuBusy::1                           366569                       # FU busy when requested (Count)
system.cpu.fuBusy::total                       723890                       # FU busy when requested (Count)
system.cpu.fuBusyRate::0                     0.009900                       # FU busy rate (busy events/executed inst) ((Count/Count))
system.cpu.fuBusyRate::1                     0.010156                       # FU busy rate (busy events/executed inst) ((Count/Count))
system.cpu.fuBusyRate::total                 0.020056                       # FU busy rate (busy events/executed inst) ((Count/Count))
system.cpu.intInstQueueReads                 81861129                       # Number of integer instruction queue reads (Count)
system.cpu.intInstQueueWrites                51049323                       # Number of integer instruction queue writes (Count)
system.cpu.intInstQueueWakeupAccesses        34558399                       # Number of integer instruction queue wakeup accesses (Count)
system.cpu.fpInstQueueReads                     37347                       # Number of floating instruction queue reads (Count)
system.cpu.fpInstQueueWrites                    29542                       # Number of floating instruction queue writes (Count)
system.cpu.fpInstQueueWakeupAccesses            16276                       # Number of floating instruction queue wakeup accesses (Count)
system.cpu.vecInstQueueReads                        0                       # Number of vector instruction queue reads (Count)
system.cpu.vecInstQueueWrites                       0                       # Number of vector instruction queue writes (Count)
system.cpu.vecInstQueueWakeupAccesses               0                       # Number of vector instruction queue wakeup accesses (Count)
system.cpu.intAluAccesses                    36784316                       # Number of integer alu accesses (Count)
system.cpu.fpAluAccesses                        18705                       # Number of floating point alu accesses (Count)
system.cpu.vecAluAccesses                           0                       # Number of vector alu accesses (Count)
system.cpu.numRecvResp                        7228481                       # Number of received responses (Count)
system.cpu.numRecvRespBytes                  29155393                       # Number of received response bytes (Byte)
system.cpu.recvRespAvgBW                         3.48                       # Average bandwidth of received responses ((Byte/Cycle))
system.cpu.recvRespAvgSize                       4.03                       # Average packet size per received response ((Byte/Count))
system.cpu.recvRespAvgRate                       0.86                       # Average rate of received responses per cycle ((Count/Cycle))
system.cpu.recvRespAvgRetryRate                  0.00                       # Average retry rate per received response ((Count/Count))
system.cpu.numSendRetryResp                         0                       # Number of retry responses sent (Count)
system.cpu.numSquashedInsts                   1472394                       # Number of squashed instructions skipped in execute (Count)
system.cpu.numSwp::0                                0                       # Number of swp insts executed (Count)
system.cpu.numSwp::1                                0                       # Number of swp insts executed (Count)
system.cpu.numSwp::total                            0                       # Number of swp insts executed (Count)
system.cpu.timesIdled                             783                       # Number of times that the entire CPU went into an idle state and unscheduled itself (Count)
system.cpu.idleCycles                           16982                       # Total number of cycles that the CPU has spent unscheduled due to idling (Cycle)
system.cpu.MemDepUnit__0.insertedLoads        4387628                       # Number of loads inserted to the mem dependence unit. (Count)
system.cpu.MemDepUnit__0.insertedStores       1070155                       # Number of stores inserted to the mem dependence unit. (Count)
system.cpu.MemDepUnit__0.conflictingLoads      1357957                       # Number of conflicting loads. (Count)
system.cpu.MemDepUnit__0.conflictingStores       292929                       # Number of conflicting stores. (Count)
system.cpu.MemDepUnit__1.insertedLoads        4422740                       # Number of loads inserted to the mem dependence unit. (Count)
system.cpu.MemDepUnit__1.insertedStores       1085756                       # Number of stores inserted to the mem dependence unit. (Count)
system.cpu.MemDepUnit__1.conflictingLoads      1392878                       # Number of conflicting loads. (Count)
system.cpu.MemDepUnit__1.conflictingStores       289274                       # Number of conflicting stores. (Count)
system.cpu.MemDepUnit__2.insertedLoads              0                       # Number of loads inserted to the mem dependence unit. (Count)
system.cpu.MemDepUnit__2.insertedStores             0                       # Number of stores inserted to the mem dependence unit. (Count)
system.cpu.MemDepUnit__2.conflictingLoads            0                       # Number of conflicting loads. (Count)
system.cpu.MemDepUnit__2.conflictingStores            0                       # Number of conflicting stores. (Count)
system.cpu.MemDepUnit__3.insertedLoads              0                       # Number of loads inserted to the mem dependence unit. (Count)
system.cpu.MemDepUnit__3.insertedStores             0                       # Number of stores inserted to the mem dependence unit. (Count)
system.cpu.MemDepUnit__3.conflictingLoads            0                       # Number of conflicting loads. (Count)
system.cpu.MemDepUnit__3.conflictingStores            0                       # Number of conflicting stores. (Count)
system.cpu.bac.fetchTargets                         0                       # Number of fetch targets created  (Count)
system.cpu.bac.branches                       2635048                       # Number of branches that BAC encountered (Count)
system.cpu.bac.predTakenBranches              1482262                       # Number of branches that BAC predicted taken. (Count)
system.cpu.bac.branchesNotLastuOp                   0                       # Number of branches that fetch encountered which are not the last uOp within a macrooperation. Jump to itself. (Count)
system.cpu.bac.branchMisspredict               390424                       # Number of mispredicted branches (Count)
system.cpu.bac.noBranchMisspredict               2046                       # Number of non-branch instructions mispredicted (Count)
system.cpu.bac.squashBranchDecode               13412                       # Number of branches squashed from decode (Count)
system.cpu.bac.squashBranchCommit              377012                       # Number of branches squashed from commit (Count)
system.cpu.bac.preDecUpdate::NoBranch               0                       # Number of branches extracted from the predecoder (Count)
system.cpu.bac.preDecUpdate::Return                 0                       # Number of branches extracted from the predecoder (Count)
system.cpu.bac.preDecUpdate::CallDirect             0                       # Number of branches extracted from the predecoder (Count)
system.cpu.bac.preDecUpdate::CallIndirect            0                       # Number of branches extracted from the predecoder (Count)
system.cpu.bac.preDecUpdate::DirectCond             0                       # Number of branches extracted from the predecoder (Count)
system.cpu.bac.preDecUpdate::DirectUncond            0                       # Number of branches extracted from the predecoder (Count)
system.cpu.bac.preDecUpdate::IndirectCond            0                       # Number of branches extracted from the predecoder (Count)
system.cpu.bac.preDecUpdate::IndirectUncond            0                       # Number of branches extracted from the predecoder (Count)
system.cpu.bac.preDecUpdate::total                  0                       # Number of branches extracted from the predecoder (Count)
system.cpu.bac.noHistByType::NoBranch               0                       # Number and type of branches that were undetected by the BPU. (Count)
system.cpu.bac.noHistByType::Return                 0                       # Number and type of branches that were undetected by the BPU. (Count)
system.cpu.bac.noHistByType::CallDirect             0                       # Number and type of branches that were undetected by the BPU. (Count)
system.cpu.bac.noHistByType::CallIndirect            0                       # Number and type of branches that were undetected by the BPU. (Count)
system.cpu.bac.noHistByType::DirectCond             0                       # Number and type of branches that were undetected by the BPU. (Count)
system.cpu.bac.noHistByType::DirectUncond            0                       # Number and type of branches that were undetected by the BPU. (Count)
system.cpu.bac.noHistByType::IndirectCond            0                       # Number and type of branches that were undetected by the BPU. (Count)
system.cpu.bac.noHistByType::IndirectUncond            0                       # Number and type of branches that were undetected by the BPU. (Count)
system.cpu.bac.noHistByType::total                  0                       # Number and type of branches that were undetected by the BPU. (Count)
system.cpu.bac.typeMissmatch                        0                       # Number branches where the branch type miss match (Count)
system.cpu.bac.multiBranchInst                      0                       # Number branches because its not the last branch. (Count)
system.cpu.bac.ftSizeDist::samples                  0                       # Number of bytes per fetch target (Count)
system.cpu.bac.ftSizeDist::mean                   nan                       # Number of bytes per fetch target (Count)
system.cpu.bac.ftSizeDist::stdev                  nan                       # Number of bytes per fetch target (Count)
system.cpu.bac.ftSizeDist::underflows               0                       # Number of bytes per fetch target (Count)
system.cpu.bac.ftSizeDist::0-3                      0                       # Number of bytes per fetch target (Count)
system.cpu.bac.ftSizeDist::4-7                      0                       # Number of bytes per fetch target (Count)
system.cpu.bac.ftSizeDist::8-11                     0                       # Number of bytes per fetch target (Count)
system.cpu.bac.ftSizeDist::12-15                    0                       # Number of bytes per fetch target (Count)
system.cpu.bac.ftSizeDist::16-19                    0                       # Number of bytes per fetch target (Count)
system.cpu.bac.ftSizeDist::20-23                    0                       # Number of bytes per fetch target (Count)
system.cpu.bac.ftSizeDist::24-27                    0                       # Number of bytes per fetch target (Count)
system.cpu.bac.ftSizeDist::28-31                    0                       # Number of bytes per fetch target (Count)
system.cpu.bac.ftSizeDist::32                       0                       # Number of bytes per fetch target (Count)
system.cpu.bac.ftSizeDist::overflows                0                       # Number of bytes per fetch target (Count)
system.cpu.bac.ftSizeDist::min_value                0                       # Number of bytes per fetch target (Count)
system.cpu.bac.ftSizeDist::max_value                0                       # Number of bytes per fetch target (Count)
system.cpu.bac.ftSizeDist::total                    0                       # Number of bytes per fetch target (Count)
system.cpu.bac.ftNumber::samples                    0                       # Number of fetch target inserted to the FTQ per cycle (Count)
system.cpu.bac.ftNumber::mean                     nan                       # Number of fetch target inserted to the FTQ per cycle (Count)
system.cpu.bac.ftNumber::stdev                    nan                       # Number of fetch target inserted to the FTQ per cycle (Count)
system.cpu.bac.ftNumber::underflows                 0                       # Number of fetch target inserted to the FTQ per cycle (Count)
system.cpu.bac.ftNumber::0                          0                       # Number of fetch target inserted to the FTQ per cycle (Count)
system.cpu.bac.ftNumber::1                          0                       # Number of fetch target inserted to the FTQ per cycle (Count)
system.cpu.bac.ftNumber::2                          0                       # Number of fetch target inserted to the FTQ per cycle (Count)
system.cpu.bac.ftNumber::3                          0                       # Number of fetch target inserted to the FTQ per cycle (Count)
system.cpu.bac.ftNumber::4                          0                       # Number of fetch target inserted to the FTQ per cycle (Count)
system.cpu.bac.ftNumber::overflows                  0                       # Number of fetch target inserted to the FTQ per cycle (Count)
system.cpu.bac.ftNumber::min_value                  0                       # Number of fetch target inserted to the FTQ per cycle (Count)
system.cpu.bac.ftNumber::max_value                  0                       # Number of fetch target inserted to the FTQ per cycle (Count)
system.cpu.bac.ftNumber::total                      0                       # Number of fetch target inserted to the FTQ per cycle (Count)
system.cpu.branchPred.lookups_0::NoBranch          770      0.06%      0.06% # Number of BP lookups (Count)
system.cpu.branchPred.lookups_0::Return          1727      0.14%      0.20% # Number of BP lookups (Count)
system.cpu.branchPred.lookups_0::CallDirect        75535      5.99%      6.19% # Number of BP lookups (Count)
system.cpu.branchPred.lookups_0::CallIndirect          371      0.03%      6.22% # Number of BP lookups (Count)
system.cpu.branchPred.lookups_0::DirectCond       884961     70.16%     76.38% # Number of BP lookups (Count)
system.cpu.branchPred.lookups_0::DirectUncond       224442     17.79%     94.17% # Number of BP lookups (Count)
system.cpu.branchPred.lookups_0::IndirectCond            0      0.00%     94.17% # Number of BP lookups (Count)
system.cpu.branchPred.lookups_0::IndirectUncond        73502      5.83%    100.00% # Number of BP lookups (Count)
system.cpu.branchPred.lookups_0::total        1261308                       # Number of BP lookups (Count)
system.cpu.branchPred.lookups_1::NoBranch          805      0.06%      0.06% # Number of BP lookups (Count)
system.cpu.branchPred.lookups_1::Return          1853      0.13%      0.19% # Number of BP lookups (Count)
system.cpu.branchPred.lookups_1::CallDirect        22813      1.66%      1.85% # Number of BP lookups (Count)
system.cpu.branchPred.lookups_1::CallIndirect          398      0.03%      1.88% # Number of BP lookups (Count)
system.cpu.branchPred.lookups_1::DirectCond      1004003     73.09%     74.97% # Number of BP lookups (Count)
system.cpu.branchPred.lookups_1::DirectUncond       323154     23.52%     98.49% # Number of BP lookups (Count)
system.cpu.branchPred.lookups_1::IndirectCond            0      0.00%     98.49% # Number of BP lookups (Count)
system.cpu.branchPred.lookups_1::IndirectUncond        20714      1.51%    100.00% # Number of BP lookups (Count)
system.cpu.branchPred.lookups_1::total        1373740                       # Number of BP lookups (Count)
system.cpu.branchPred.lookups::total          2635048      0.00%      0.00% # Number of BP lookups (Count)
system.cpu.branchPred.squashes_0::NoBranch          730      0.08%      0.08% # Number of branches that got squashed (completely removed) as an earlier branch was mispredicted. (Count)
system.cpu.branchPred.squashes_0::Return          840      0.09%      0.16% # Number of branches that got squashed (completely removed) as an earlier branch was mispredicted. (Count)
system.cpu.branchPred.squashes_0::CallDirect        74787      7.77%      7.94% # Number of branches that got squashed (completely removed) as an earlier branch was mispredicted. (Count)
system.cpu.branchPred.squashes_0::CallIndirect          227      0.02%      7.96% # Number of branches that got squashed (completely removed) as an earlier branch was mispredicted. (Count)
system.cpu.branchPred.squashes_0::DirectCond       592551     61.60%     69.56% # Number of branches that got squashed (completely removed) as an earlier branch was mispredicted. (Count)
system.cpu.branchPred.squashes_0::DirectUncond       219514     22.82%     92.38% # Number of branches that got squashed (completely removed) as an earlier branch was mispredicted. (Count)
system.cpu.branchPred.squashes_0::IndirectCond            0      0.00%     92.38% # Number of branches that got squashed (completely removed) as an earlier branch was mispredicted. (Count)
system.cpu.branchPred.squashes_0::IndirectUncond        73281      7.62%    100.00% # Number of branches that got squashed (completely removed) as an earlier branch was mispredicted. (Count)
system.cpu.branchPred.squashes_0::total        961930                       # Number of branches that got squashed (completely removed) as an earlier branch was mispredicted. (Count)
system.cpu.branchPred.squashes_1::NoBranch          765      0.07%      0.07% # Number of branches that got squashed (completely removed) as an earlier branch was mispredicted. (Count)
system.cpu.branchPred.squashes_1::Return          966      0.09%      0.16% # Number of branches that got squashed (completely removed) as an earlier branch was mispredicted. (Count)
system.cpu.branchPred.squashes_1::CallDirect        22065      2.05%      2.21% # Number of branches that got squashed (completely removed) as an earlier branch was mispredicted. (Count)
system.cpu.branchPred.squashes_1::CallIndirect          254      0.02%      2.24% # Number of branches that got squashed (completely removed) as an earlier branch was mispredicted. (Count)
system.cpu.branchPred.squashes_1::DirectCond       711594     66.23%     68.47% # Number of branches that got squashed (completely removed) as an earlier branch was mispredicted. (Count)
system.cpu.branchPred.squashes_1::DirectUncond       318226     29.62%     98.09% # Number of branches that got squashed (completely removed) as an earlier branch was mispredicted. (Count)
system.cpu.branchPred.squashes_1::IndirectCond            0      0.00%     98.09% # Number of branches that got squashed (completely removed) as an earlier branch was mispredicted. (Count)
system.cpu.branchPred.squashes_1::IndirectUncond        20493      1.91%    100.00% # Number of branches that got squashed (completely removed) as an earlier branch was mispredicted. (Count)
system.cpu.branchPred.squashes_1::total       1074363                       # Number of branches that got squashed (completely removed) as an earlier branch was mispredicted. (Count)
system.cpu.branchPred.squashes::total         2036293      0.00%      0.00% # Number of branches that got squashed (completely removed) as an earlier branch was mispredicted. (Count)
system.cpu.branchPred.corrected_0::NoBranch           99      0.05%      0.05% # Number of branches that got corrected but not yet commited. Branches get corrected by decode or after execute. Also a branch misprediction can be detected out-of-order. Therefore, a corrected branch might not end up beeing committed in case an even earlier branch was mispredicted (Count)
system.cpu.branchPred.corrected_0::Return            1      0.00%      0.05% # Number of branches that got corrected but not yet commited. Branches get corrected by decode or after execute. Also a branch misprediction can be detected out-of-order. Therefore, a corrected branch might not end up beeing committed in case an even earlier branch was mispredicted (Count)
system.cpu.branchPred.corrected_0::CallDirect         1332      0.68%      0.73% # Number of branches that got corrected but not yet commited. Branches get corrected by decode or after execute. Also a branch misprediction can be detected out-of-order. Therefore, a corrected branch might not end up beeing committed in case an even earlier branch was mispredicted (Count)
system.cpu.branchPred.corrected_0::CallIndirect           46      0.02%      0.76% # Number of branches that got corrected but not yet commited. Branches get corrected by decode or after execute. Also a branch misprediction can be detected out-of-order. Therefore, a corrected branch might not end up beeing committed in case an even earlier branch was mispredicted (Count)
system.cpu.branchPred.corrected_0::DirectCond       188324     96.44%     97.20% # Number of branches that got corrected but not yet commited. Branches get corrected by decode or after execute. Also a branch misprediction can be detected out-of-order. Therefore, a corrected branch might not end up beeing committed in case an even earlier branch was mispredicted (Count)
system.cpu.branchPred.corrected_0::DirectUncond         5373      2.75%     99.95% # Number of branches that got corrected but not yet commited. Branches get corrected by decode or after execute. Also a branch misprediction can be detected out-of-order. Therefore, a corrected branch might not end up beeing committed in case an even earlier branch was mispredicted (Count)
system.cpu.branchPred.corrected_0::IndirectCond            0      0.00%     99.95% # Number of branches that got corrected but not yet commited. Branches get corrected by decode or after execute. Also a branch misprediction can be detected out-of-order. Therefore, a corrected branch might not end up beeing committed in case an even earlier branch was mispredicted (Count)
system.cpu.branchPred.corrected_0::IndirectUncond          102      0.05%    100.00% # Number of branches that got corrected but not yet commited. Branches get corrected by decode or after execute. Also a branch misprediction can be detected out-of-order. Therefore, a corrected branch might not end up beeing committed in case an even earlier branch was mispredicted (Count)
system.cpu.branchPred.corrected_0::total       195277                       # Number of branches that got corrected but not yet commited. Branches get corrected by decode or after execute. Also a branch misprediction can be detected out-of-order. Therefore, a corrected branch might not end up beeing committed in case an even earlier branch was mispredicted (Count)
system.cpu.branchPred.corrected_1::NoBranch           97      0.05%      0.05% # Number of branches that got corrected but not yet commited. Branches get corrected by decode or after execute. Also a branch misprediction can be detected out-of-order. Therefore, a corrected branch might not end up beeing committed in case an even earlier branch was mispredicted (Count)
system.cpu.branchPred.corrected_1::Return            3      0.00%      0.05% # Number of branches that got corrected but not yet commited. Branches get corrected by decode or after execute. Also a branch misprediction can be detected out-of-order. Therefore, a corrected branch might not end up beeing committed in case an even earlier branch was mispredicted (Count)
system.cpu.branchPred.corrected_1::CallDirect         1340      0.69%      0.74% # Number of branches that got corrected but not yet commited. Branches get corrected by decode or after execute. Also a branch misprediction can be detected out-of-order. Therefore, a corrected branch might not end up beeing committed in case an even earlier branch was mispredicted (Count)
system.cpu.branchPred.corrected_1::CallIndirect           57      0.03%      0.77% # Number of branches that got corrected but not yet commited. Branches get corrected by decode or after execute. Also a branch misprediction can be detected out-of-order. Therefore, a corrected branch might not end up beeing committed in case an even earlier branch was mispredicted (Count)
system.cpu.branchPred.corrected_1::DirectCond       188168     96.42%     97.19% # Number of branches that got corrected but not yet commited. Branches get corrected by decode or after execute. Also a branch misprediction can be detected out-of-order. Therefore, a corrected branch might not end up beeing committed in case an even earlier branch was mispredicted (Count)
system.cpu.branchPred.corrected_1::DirectUncond         5358      2.75%     99.94% # Number of branches that got corrected but not yet commited. Branches get corrected by decode or after execute. Also a branch misprediction can be detected out-of-order. Therefore, a corrected branch might not end up beeing committed in case an even earlier branch was mispredicted (Count)
system.cpu.branchPred.corrected_1::IndirectCond            0      0.00%     99.94% # Number of branches that got corrected but not yet commited. Branches get corrected by decode or after execute. Also a branch misprediction can be detected out-of-order. Therefore, a corrected branch might not end up beeing committed in case an even earlier branch was mispredicted (Count)
system.cpu.branchPred.corrected_1::IndirectUncond          124      0.06%    100.00% # Number of branches that got corrected but not yet commited. Branches get corrected by decode or after execute. Also a branch misprediction can be detected out-of-order. Therefore, a corrected branch might not end up beeing committed in case an even earlier branch was mispredicted (Count)
system.cpu.branchPred.corrected_1::total       195147                       # Number of branches that got corrected but not yet commited. Branches get corrected by decode or after execute. Also a branch misprediction can be detected out-of-order. Therefore, a corrected branch might not end up beeing committed in case an even earlier branch was mispredicted (Count)
system.cpu.branchPred.corrected::total         390424      0.00%      0.00% # Number of branches that got corrected but not yet commited. Branches get corrected by decode or after execute. Also a branch misprediction can be detected out-of-order. Therefore, a corrected branch might not end up beeing committed in case an even earlier branch was mispredicted (Count)
system.cpu.branchPred.earlyResteers_0::NoBranch            0      0.00%      0.00% # Number of branches that got redirected after decode. (Count)
system.cpu.branchPred.earlyResteers_0::Return            0      0.00%      0.00% # Number of branches that got redirected after decode. (Count)
system.cpu.branchPred.earlyResteers_0::CallDirect         1332     19.86%     19.86% # Number of branches that got redirected after decode. (Count)
system.cpu.branchPred.earlyResteers_0::CallIndirect            0      0.00%     19.86% # Number of branches that got redirected after decode. (Count)
system.cpu.branchPred.earlyResteers_0::DirectCond            1      0.01%     19.88% # Number of branches that got redirected after decode. (Count)
system.cpu.branchPred.earlyResteers_0::DirectUncond         5373     80.12%    100.00% # Number of branches that got redirected after decode. (Count)
system.cpu.branchPred.earlyResteers_0::IndirectCond            0      0.00%    100.00% # Number of branches that got redirected after decode. (Count)
system.cpu.branchPred.earlyResteers_0::IndirectUncond            0      0.00%    100.00% # Number of branches that got redirected after decode. (Count)
system.cpu.branchPred.earlyResteers_0::total         6706                       # Number of branches that got redirected after decode. (Count)
system.cpu.branchPred.earlyResteers_1::NoBranch            0      0.00%      0.00% # Number of branches that got redirected after decode. (Count)
system.cpu.branchPred.earlyResteers_1::Return            0      0.00%      0.00% # Number of branches that got redirected after decode. (Count)
system.cpu.branchPred.earlyResteers_1::CallDirect         1340     19.98%     19.98% # Number of branches that got redirected after decode. (Count)
system.cpu.branchPred.earlyResteers_1::CallIndirect            0      0.00%     19.98% # Number of branches that got redirected after decode. (Count)
system.cpu.branchPred.earlyResteers_1::DirectCond            8      0.12%     20.10% # Number of branches that got redirected after decode. (Count)
system.cpu.branchPred.earlyResteers_1::DirectUncond         5358     79.90%    100.00% # Number of branches that got redirected after decode. (Count)
system.cpu.branchPred.earlyResteers_1::IndirectCond            0      0.00%    100.00% # Number of branches that got redirected after decode. (Count)
system.cpu.branchPred.earlyResteers_1::IndirectUncond            0      0.00%    100.00% # Number of branches that got redirected after decode. (Count)
system.cpu.branchPred.earlyResteers_1::total         6706                       # Number of branches that got redirected after decode. (Count)
system.cpu.branchPred.earlyResteers::total        13412      0.00%      0.00% # Number of branches that got redirected after decode. (Count)
system.cpu.branchPred.committed_0::NoBranch           40      0.01%      0.01% # Number of branches finally committed  (Count)
system.cpu.branchPred.committed_0::Return          887      0.30%      0.31% # Number of branches finally committed  (Count)
system.cpu.branchPred.committed_0::CallDirect          748      0.25%      0.56% # Number of branches finally committed  (Count)
system.cpu.branchPred.committed_0::CallIndirect          144      0.05%      0.61% # Number of branches finally committed  (Count)
system.cpu.branchPred.committed_0::DirectCond       292409     97.67%     98.28% # Number of branches finally committed  (Count)
system.cpu.branchPred.committed_0::DirectUncond         4928      1.65%     99.93% # Number of branches finally committed  (Count)
system.cpu.branchPred.committed_0::IndirectCond            0      0.00%     99.93% # Number of branches finally committed  (Count)
system.cpu.branchPred.committed_0::IndirectUncond          221      0.07%    100.00% # Number of branches finally committed  (Count)
system.cpu.branchPred.committed_0::total       299377                       # Number of branches finally committed  (Count)
system.cpu.branchPred.committed_1::NoBranch           40      0.01%      0.01% # Number of branches finally committed  (Count)
system.cpu.branchPred.committed_1::Return          887      0.30%      0.31% # Number of branches finally committed  (Count)
system.cpu.branchPred.committed_1::CallDirect          748      0.25%      0.56% # Number of branches finally committed  (Count)
system.cpu.branchPred.committed_1::CallIndirect          144      0.05%      0.61% # Number of branches finally committed  (Count)
system.cpu.branchPred.committed_1::DirectCond       292409     97.67%     98.28% # Number of branches finally committed  (Count)
system.cpu.branchPred.committed_1::DirectUncond         4928      1.65%     99.93% # Number of branches finally committed  (Count)
system.cpu.branchPred.committed_1::IndirectCond            0      0.00%     99.93% # Number of branches finally committed  (Count)
system.cpu.branchPred.committed_1::IndirectUncond          221      0.07%    100.00% # Number of branches finally committed  (Count)
system.cpu.branchPred.committed_1::total       299377                       # Number of branches finally committed  (Count)
system.cpu.branchPred.committed::total         598754      0.00%      0.00% # Number of branches finally committed  (Count)
system.cpu.branchPred.mispredicted_0::NoBranch           40      0.02%      0.02% # Number of committed branches that were mispredicted. (Count)
system.cpu.branchPred.mispredicted_0::Return            0      0.00%      0.02% # Number of committed branches that were mispredicted. (Count)
system.cpu.branchPred.mispredicted_0::CallDirect          491      0.25%      0.27% # Number of committed branches that were mispredicted. (Count)
system.cpu.branchPred.mispredicted_0::CallIndirect           45      0.02%      0.30% # Number of committed branches that were mispredicted. (Count)
system.cpu.branchPred.mispredicted_0::DirectCond       187848     97.28%     97.58% # Number of committed branches that were mispredicted. (Count)
system.cpu.branchPred.mispredicted_0::DirectUncond         4598      2.38%     99.96% # Number of committed branches that were mispredicted. (Count)
system.cpu.branchPred.mispredicted_0::IndirectCond            0      0.00%     99.96% # Number of committed branches that were mispredicted. (Count)
system.cpu.branchPred.mispredicted_0::IndirectUncond           75      0.04%    100.00% # Number of committed branches that were mispredicted. (Count)
system.cpu.branchPred.mispredicted_0::total       193097                       # Number of committed branches that were mispredicted. (Count)
system.cpu.branchPred.mispredicted_1::NoBranch           40      0.02%      0.02% # Number of committed branches that were mispredicted. (Count)
system.cpu.branchPred.mispredicted_1::Return            0      0.00%      0.02% # Number of committed branches that were mispredicted. (Count)
system.cpu.branchPred.mispredicted_1::CallDirect          493      0.26%      0.28% # Number of committed branches that were mispredicted. (Count)
system.cpu.branchPred.mispredicted_1::CallIndirect           56      0.03%      0.31% # Number of committed branches that were mispredicted. (Count)
system.cpu.branchPred.mispredicted_1::DirectCond       187654     97.27%     97.58% # Number of committed branches that were mispredicted. (Count)
system.cpu.branchPred.mispredicted_1::DirectUncond         4587      2.38%     99.95% # Number of committed branches that were mispredicted. (Count)
system.cpu.branchPred.mispredicted_1::IndirectCond            0      0.00%     99.95% # Number of committed branches that were mispredicted. (Count)
system.cpu.branchPred.mispredicted_1::IndirectUncond           89      0.05%    100.00% # Number of committed branches that were mispredicted. (Count)
system.cpu.branchPred.mispredicted_1::total       192919                       # Number of committed branches that were mispredicted. (Count)
system.cpu.branchPred.mispredicted::total       386016      0.00%      0.00% # Number of committed branches that were mispredicted. (Count)
system.cpu.branchPred.mispredictDueToPredictor_0::NoBranch           39      1.77%      1.77% # Number of committed branches that were mispredicted by the predictor. (Count)
system.cpu.branchPred.mispredictDueToPredictor_0::Return            0      0.00%      1.77% # Number of committed branches that were mispredicted by the predictor. (Count)
system.cpu.branchPred.mispredictDueToPredictor_0::CallDirect            0      0.00%      1.77% # Number of committed branches that were mispredicted by the predictor. (Count)
system.cpu.branchPred.mispredictDueToPredictor_0::CallIndirect            0      0.00%      1.77% # Number of committed branches that were mispredicted by the predictor. (Count)
system.cpu.branchPred.mispredictDueToPredictor_0::DirectCond         2169     98.23%    100.00% # Number of committed branches that were mispredicted by the predictor. (Count)
system.cpu.branchPred.mispredictDueToPredictor_0::DirectUncond            0      0.00%    100.00% # Number of committed branches that were mispredicted by the predictor. (Count)
system.cpu.branchPred.mispredictDueToPredictor_0::IndirectCond            0      0.00%    100.00% # Number of committed branches that were mispredicted by the predictor. (Count)
system.cpu.branchPred.mispredictDueToPredictor_0::IndirectUncond            0      0.00%    100.00% # Number of committed branches that were mispredicted by the predictor. (Count)
system.cpu.branchPred.mispredictDueToPredictor_0::total         2208                       # Number of committed branches that were mispredicted by the predictor. (Count)
system.cpu.branchPred.mispredictDueToPredictor_1::NoBranch           40      1.97%      1.97% # Number of committed branches that were mispredicted by the predictor. (Count)
system.cpu.branchPred.mispredictDueToPredictor_1::Return            0      0.00%      1.97% # Number of committed branches that were mispredicted by the predictor. (Count)
system.cpu.branchPred.mispredictDueToPredictor_1::CallDirect            0      0.00%      1.97% # Number of committed branches that were mispredicted by the predictor. (Count)
system.cpu.branchPred.mispredictDueToPredictor_1::CallIndirect            0      0.00%      1.97% # Number of committed branches that were mispredicted by the predictor. (Count)
system.cpu.branchPred.mispredictDueToPredictor_1::DirectCond         1995     98.03%    100.00% # Number of committed branches that were mispredicted by the predictor. (Count)
system.cpu.branchPred.mispredictDueToPredictor_1::DirectUncond            0      0.00%    100.00% # Number of committed branches that were mispredicted by the predictor. (Count)
system.cpu.branchPred.mispredictDueToPredictor_1::IndirectCond            0      0.00%    100.00% # Number of committed branches that were mispredicted by the predictor. (Count)
[...]
system.mem_ctrl.dram.bwRead::total          386601566                       # Total read bandwidth from this memory ((Byte/Second))
system.mem_ctrl.dram.bwInstRead::cpu.inst     24829096                       # Instruction read bandwidth from this memory ((Byte/Second))
system.mem_ctrl.dram.bwInstRead::total       24829096                       # Instruction read bandwidth from this memory ((Byte/Second))
system.mem_ctrl.dram.bwWrite::writebacks     24462164                       # Write bandwidth from this memory ((Byte/Second))
system.mem_ctrl.dram.bwWrite::total          24462164                       # Write bandwidth from this memory ((Byte/Second))
system.mem_ctrl.dram.bwTotal::writebacks     24462164                       # Total bandwidth to/from this memory ((Byte/Second))
system.mem_ctrl.dram.bwTotal::cpu.inst       24829096                       # Total bandwidth to/from this memory ((Byte/Second))
system.mem_ctrl.dram.bwTotal::cpu.data      361772470                       # Total bandwidth to/from this memory ((Byte/Second))
system.mem_ctrl.dram.bwTotal::total         411063730                       # Total bandwidth to/from this memory ((Byte/Second))
system.mem_ctrl.dram.readBursts                 49962                       # Number of DRAM read bursts (Count)
system.mem_ctrl.dram.writeBursts                 3165                       # Number of DRAM write bursts (Count)
system.mem_ctrl.dram.perBankRdBursts::0           417                       # Per bank write bursts (Count)
system.mem_ctrl.dram.perBankRdBursts::1           483                       # Per bank write bursts (Count)
system.mem_ctrl.dram.perBankRdBursts::2          1564                       # Per bank write bursts (Count)
system.mem_ctrl.dram.perBankRdBursts::3          2111                       # Per bank write bursts (Count)
system.mem_ctrl.dram.perBankRdBursts::4          9235                       # Per bank write bursts (Count)
system.mem_ctrl.dram.perBankRdBursts::5          9264                       # Per bank write bursts (Count)
system.mem_ctrl.dram.perBankRdBursts::6           840                       # Per bank write bursts (Count)
system.mem_ctrl.dram.perBankRdBursts::7           433                       # Per bank write bursts (Count)
system.mem_ctrl.dram.perBankRdBursts::8          1333                       # Per bank write bursts (Count)
system.mem_ctrl.dram.perBankRdBursts::9          1799                       # Per bank write bursts (Count)
system.mem_ctrl.dram.perBankRdBursts::10         5864                       # Per bank write bursts (Count)
system.mem_ctrl.dram.perBankRdBursts::11         9597                       # Per bank write bursts (Count)
system.mem_ctrl.dram.perBankRdBursts::12         5371                       # Per bank write bursts (Count)
system.mem_ctrl.dram.perBankRdBursts::13          692                       # Per bank write bursts (Count)
system.mem_ctrl.dram.perBankRdBursts::14          526                       # Per bank write bursts (Count)
system.mem_ctrl.dram.perBankRdBursts::15          433                       # Per bank write bursts (Count)
system.mem_ctrl.dram.perBankWrBursts::0            46                       # Per bank write bursts (Count)
system.mem_ctrl.dram.perBankWrBursts::1            18                       # Per bank write bursts (Count)
system.mem_ctrl.dram.perBankWrBursts::2           142                       # Per bank write bursts (Count)
system.mem_ctrl.dram.perBankWrBursts::3           269                       # Per bank write bursts (Count)
system.mem_ctrl.dram.perBankWrBursts::4           293                       # Per bank write bursts (Count)
system.mem_ctrl.dram.perBankWrBursts::5           288                       # Per bank write bursts (Count)
system.mem_ctrl.dram.perBankWrBursts::6           258                       # Per bank write bursts (Count)
system.mem_ctrl.dram.perBankWrBursts::7           251                       # Per bank write bursts (Count)
system.mem_ctrl.dram.perBankWrBursts::8           182                       # Per bank write bursts (Count)
system.mem_ctrl.dram.perBankWrBursts::9           242                       # Per bank write bursts (Count)
system.mem_ctrl.dram.perBankWrBursts::10          167                       # Per bank write bursts (Count)
system.mem_ctrl.dram.perBankWrBursts::11          203                       # Per bank write bursts (Count)
system.mem_ctrl.dram.perBankWrBursts::12          255                       # Per bank write bursts (Count)
system.mem_ctrl.dram.perBankWrBursts::13          358                       # Per bank write bursts (Count)
system.mem_ctrl.dram.perBankWrBursts::14          147                       # Per bank write bursts (Count)
system.mem_ctrl.dram.perBankWrBursts::15           46                       # Per bank write bursts (Count)
system.mem_ctrl.dram.totQLat                420812000                       # Total ticks spent queuing (Tick)
system.mem_ctrl.dram.totBusLat              249810000                       # Total ticks spent in databus transfers (Tick)
system.mem_ctrl.dram.totMemAccLat          1357599500                       # Total ticks spent from burst creation until serviced by the DRAM (Tick)
system.mem_ctrl.dram.avgQLat                  8422.64                       # Average queueing delay per DRAM burst ((Tick/Count))
system.mem_ctrl.dram.avgBusLat                5000.00                       # Average bus latency per DRAM burst ((Tick/Count))
system.mem_ctrl.dram.avgMemAccLat            27172.64                       # Average memory access latency per DRAM burst ((Tick/Count))
system.mem_ctrl.dram.readRowHits                41063                       # Number of row buffer hits during reads (Count)
system.mem_ctrl.dram.writeRowHits                2843                       # Number of row buffer hits during writes (Count)
system.mem_ctrl.dram.readRowHitRate             82.19                       # Row buffer hit rate for reads (Ratio)
system.mem_ctrl.dram.writeRowHitRate            89.83                       # Row buffer hit rate for writes (Ratio)
system.mem_ctrl.dram.bytesPerActivate::samples         9214                       # Bytes accessed per row activation (Byte)
system.mem_ctrl.dram.bytesPerActivate::mean   368.913393                       # Bytes accessed per row activation (Byte)
system.mem_ctrl.dram.bytesPerActivate::gmean   258.455397                       # Bytes accessed per row activation (Byte)
system.mem_ctrl.dram.bytesPerActivate::stdev   283.863046                       # Bytes accessed per row activation (Byte)
system.mem_ctrl.dram.bytesPerActivate::0-127         1881     20.41%     20.41% # Bytes accessed per row activation (Byte)
system.mem_ctrl.dram.bytesPerActivate::128-255         1607     17.44%     37.86% # Bytes accessed per row activation (Byte)
system.mem_ctrl.dram.bytesPerActivate::256-383         1802     19.56%     57.41% # Bytes accessed per row activation (Byte)
system.mem_ctrl.dram.bytesPerActivate::384-511          791      8.58%     66.00% # Bytes accessed per row activation (Byte)
system.mem_ctrl.dram.bytesPerActivate::512-639         1299     14.10%     80.10% # Bytes accessed per row activation (Byte)
system.mem_ctrl.dram.bytesPerActivate::640-767          618      6.71%     86.80% # Bytes accessed per row activation (Byte)
system.mem_ctrl.dram.bytesPerActivate::768-895          448      4.86%     91.66% # Bytes accessed per row activation (Byte)
system.mem_ctrl.dram.bytesPerActivate::896-1023          237      2.57%     94.24% # Bytes accessed per row activation (Byte)
system.mem_ctrl.dram.bytesPerActivate::1024-1151          531      5.76%    100.00% # Bytes accessed per row activation (Byte)
system.mem_ctrl.dram.bytesPerActivate::total         9214                       # Bytes accessed per row activation (Byte)
system.mem_ctrl.dram.dramBytesRead            3197568                       # Total bytes read (Byte)
system.mem_ctrl.dram.dramBytesWritten          202560                       # Total bytes written (Byte)
system.mem_ctrl.dram.avgRdBW               381.930822                       # Average DRAM read bandwidth in MiBytes/s ((Byte/Second))
system.mem_ctrl.dram.avgWrBW                24.194609                       # Average DRAM write bandwidth in MiBytes/s ((Byte/Second))
system.mem_ctrl.dram.peakBW                  12800.00                       # Theoretical peak bandwidth in MiByte/s ((Byte/Second))
system.mem_ctrl.dram.busUtil                     3.17                       # Data bus utilization in percentage (Ratio)
system.mem_ctrl.dram.busUtilRead                 2.98                       # Data bus utilization in percentage for reads (Ratio)
system.mem_ctrl.dram.busUtilWrite                0.19                       # Data bus utilization in percentage for writes (Ratio)
system.mem_ctrl.dram.pageHitRate                82.64                       # Row buffer hit rate, read and write combined (Ratio)
system.mem_ctrl.dram.power_state.pwrStateResidencyTicks::UNDEFINED   8372113000                       # Cumulative time (in ticks) in various power states (Tick)
system.mem_ctrl.dram.rank0.actEnergy         30516360                       # Energy for activate commands per rank (pJ) (Joule)
system.mem_ctrl.dram.rank0.preEnergy         16197060                       # Energy for precharge commands per rank (pJ) (Joule)
system.mem_ctrl.dram.rank0.readEnergy       173837580                       # Energy for read commands per rank (pJ) (Joule)
system.mem_ctrl.dram.rank0.writeEnergy        8169300                       # Energy for write commands per rank (pJ) (Joule)
system.mem_ctrl.dram.rank0.refreshEnergy 660738000.000000                       # Energy for refresh commands per rank (pJ) (Joule)
system.mem_ctrl.dram.rank0.actBackEnergy   3222878610                       # Energy for active background per rank (pJ) (Joule)
system.mem_ctrl.dram.rank0.preBackEnergy    500888640                       # Energy for precharge background per rank (pJ) (Joule)
system.mem_ctrl.dram.rank0.actPowerDownEnergy            0                       # Energy for active power-down per rank (pJ) (Joule)
system.mem_ctrl.dram.rank0.prePowerDownEnergy            0                       # Energy for precharge power-down per rank (pJ) (Joule)
system.mem_ctrl.dram.rank0.selfRefreshEnergy            0                       # Energy for self refresh per rank (pJ) (Joule)
system.mem_ctrl.dram.rank0.totalEnergy     4613225550                       # Total energy per rank (pJ) (Joule)
system.mem_ctrl.dram.rank0.averagePower    551.022848                       # Core power per rank (mW) (Watt)
system.mem_ctrl.dram.rank0.totalIdleTime            0                       # Total Idle time Per DRAM Rank (Tick)
system.mem_ctrl.dram.rank0.pwrStateTime::IDLE   1275993500                       # Time in different power states (Tick)
system.mem_ctrl.dram.rank0.pwrStateTime::REF    279500000                       # Time in different power states (Tick)
system.mem_ctrl.dram.rank0.pwrStateTime::SREF            0                       # Time in different power states (Tick)
system.mem_ctrl.dram.rank0.pwrStateTime::PRE_PDN            0                       # Time in different power states (Tick)
system.mem_ctrl.dram.rank0.pwrStateTime::ACT   6816619500                       # Time in different power states (Tick)
system.mem_ctrl.dram.rank0.pwrStateTime::ACT_PDN            0                       # Time in different power states (Tick)
system.mem_ctrl.dram.rank1.actEnergy         35321580                       # Energy for activate commands per rank (pJ) (Joule)
system.mem_ctrl.dram.rank1.preEnergy         18770070                       # Energy for precharge commands per rank (pJ) (Joule)
system.mem_ctrl.dram.rank1.readEnergy       182891100                       # Energy for read commands per rank (pJ) (Joule)
system.mem_ctrl.dram.rank1.writeEnergy        8352000                       # Energy for write commands per rank (pJ) (Joule)
system.mem_ctrl.dram.rank1.refreshEnergy 660738000.000000                       # Energy for refresh commands per rank (pJ) (Joule)
system.mem_ctrl.dram.rank1.actBackEnergy   3242334990                       # Energy for active background per rank (pJ) (Joule)
system.mem_ctrl.dram.rank1.preBackEnergy    484504320                       # Energy for precharge background per rank (pJ) (Joule)
system.mem_ctrl.dram.rank1.actPowerDownEnergy            0                       # Energy for active power-down per rank (pJ) (Joule)
system.mem_ctrl.dram.rank1.prePowerDownEnergy            0                       # Energy for precharge power-down per rank (pJ) (Joule)
system.mem_ctrl.dram.rank1.selfRefreshEnergy            0                       # Energy for self refresh per rank (pJ) (Joule)
system.mem_ctrl.dram.rank1.totalEnergy     4632912060                       # Total energy per rank (pJ) (Joule)
system.mem_ctrl.dram.rank1.averagePower    553.374287                       # Core power per rank (mW) (Watt)
system.mem_ctrl.dram.rank1.totalIdleTime            0                       # Total Idle time Per DRAM Rank (Tick)
system.mem_ctrl.dram.rank1.pwrStateTime::IDLE   1233315250                       # Time in different power states (Tick)
system.mem_ctrl.dram.rank1.pwrStateTime::REF    279500000                       # Time in different power states (Tick)
system.mem_ctrl.dram.rank1.pwrStateTime::SREF            0                       # Time in different power states (Tick)
system.mem_ctrl.dram.rank1.pwrStateTime::PRE_PDN            0                       # Time in different power states (Tick)
system.mem_ctrl.dram.rank1.pwrStateTime::ACT   6859297750                       # Time in different power states (Tick)
system.mem_ctrl.dram.rank1.pwrStateTime::ACT_PDN            0                       # Time in different power states (Tick)
system.mem_ctrl.power_state.pwrStateResidencyTicks::UNDEFINED   8372113000                       # Cumulative time (in ticks) in various power states (Tick)
system.membus.transDist::ReadResp               48270                       # Transaction distribution (Count)
system.membus.transDist::WritebackDirty          3200                       # Transaction distribution (Count)
system.membus.transDist::CleanEvict             46350                       # Transaction distribution (Count)
system.membus.transDist::UpgradeReq                 1                       # Transaction distribution (Count)
system.membus.transDist::ReadExReq               2305                       # Transaction distribution (Count)
system.membus.transDist::ReadExResp              2305                       # Transaction distribution (Count)
system.membus.transDist::ReadSharedReq          48271                       # Transaction distribution (Count)
system.membus.pktCount_system.cpu.icache.mem_side_port::system.mem_ctrl.port         9236                       # Packet count per connected requestor and responder (Count)
system.membus.pktCount_system.cpu.icache.mem_side_port::total         9236                       # Packet count per connected requestor and responder (Count)
system.membus.pktCount_system.cpu.dcache.mem_side_port::system.mem_ctrl.port       141464                       # Packet count per connected requestor and responder (Count)
system.membus.pktCount_system.cpu.dcache.mem_side_port::total       141464                       # Packet count per connected requestor and responder (Count)
system.membus.pktCount::total                  150700                       # Packet count per connected requestor and responder (Count)
system.membus.pktSize_system.cpu.icache.mem_side_port::system.mem_ctrl.port       207872                       # Cumulative packet size per connected requestor and responder (Byte)
system.membus.pktSize_system.cpu.icache.mem_side_port::total       207872                       # Cumulative packet size per connected requestor and responder (Byte)
system.membus.pktSize_system.cpu.dcache.mem_side_port::system.mem_ctrl.port      3233600                       # Cumulative packet size per connected requestor and responder (Byte)
system.membus.pktSize_system.cpu.dcache.mem_side_port::total      3233600                       # Cumulative packet size per connected requestor and responder (Byte)
system.membus.pktSize::total                  3441472                       # Cumulative packet size per connected requestor and responder (Byte)
system.membus.snoops                                2                       # Total snoops (Count)
system.membus.snoopTraffic                        128                       # Total snoop traffic (Byte)
system.membus.snoopFanout::samples              50577                       # Request fanout histogram (Count)
system.membus.snoopFanout::mean              0.000178                       # Request fanout histogram (Count)
system.membus.snoopFanout::stdev             0.013339                       # Request fanout histogram (Count)
system.membus.snoopFanout::underflows               0      0.00%      0.00% # Request fanout histogram (Count)
system.membus.snoopFanout::0                    50568     99.98%     99.98% # Request fanout histogram (Count)
system.membus.snoopFanout::1                        9      0.02%    100.00% # Request fanout histogram (Count)
system.membus.snoopFanout::2                        0      0.00%    100.00% # Request fanout histogram (Count)
system.membus.snoopFanout::overflows                0      0.00%    100.00% # Request fanout histogram (Count)
system.membus.snoopFanout::min_value                0                       # Request fanout histogram (Count)
system.membus.snoopFanout::max_value                1                       # Request fanout histogram (Count)
system.membus.snoopFanout::total                50577                       # Request fanout histogram (Count)
system.membus.power_state.pwrStateResidencyTicks::UNDEFINED   8372113000                       # Cumulative time (in ticks) in various power states (Tick)
system.membus.reqLayer4.occupancy           112927000                       # Layer occupancy (ticks) (Tick)
system.membus.reqLayer4.utilization               0.0                       # Layer utilization (Ratio)
system.membus.respLayer0.occupancy           17322500                       # Layer occupancy (ticks) (Tick)
system.membus.respLayer0.utilization              0.0                       # Layer utilization (Ratio)
system.membus.respLayer1.occupancy          250087000                       # Layer occupancy (ticks) (Tick)
system.membus.respLayer1.utilization              0.0                       # Layer utilization (Ratio)
system.membus.snoop_filter.totRequests         100127                       # Total number of requests made to the snoop filter. (Count)
system.membus.snoop_filter.hitSingleRequests        49550                       # Number of requests hitting in the snoop filter with a single holder of the requested data. (Count)
system.membus.snoop_filter.hitMultiRequests            9                       # Number of requests hitting in the snoop filter with multiple (>1) holders of the requested data. (Count)
system.membus.snoop_filter.totSnoops                0                       # Total number of snoops made to the snoop filter. (Count)
system.membus.snoop_filter.hitSingleSnoops            0                       # Number of snoops hitting in the snoop filter with a single holder of the requested data. (Count)
system.membus.snoop_filter.hitMultiSnoops            0                       # Number of snoops hitting in the snoop filter with multiple (>1) holders of the requested data. (Count)
system.workload.inst.arm                            0                       # number of arm instructions executed (Count)
system.workload.inst.quiesce                        0                       # number of quiesce instructions executed (Count)

---------- End Simulation Statistics   ----------
